[TITLE]
;;Project Title/Notes

[OPTIONS]
;;Option             Value
FLOW_UNITS           CFS
INFILTRATION         MODIFIED_GREEN_AMPT
FLOW_ROUTING         DYNWAVE
LINK_OFFSETS         DEPTH
MIN_SLOPE            0
ALLOW_PONDING        NO
SKIP_STEADY_STATE    NO

START_DATE           08/12/2017
START_TIME           00:00:00
REPORT_START_DATE    08/12/2017
REPORT_START_TIME    00:00:00
END_DATE             08/13/2017
END_TIME             00:00:00
SWEEP_START          01/01
SWEEP_END            12/31
DRY_DAYS             0
REPORT_STEP          00:01:00
WET_STEP             00:05:00
DRY_STEP             01:00:00
ROUTING_STEP         0:00:01 

INERTIAL_DAMPING     PARTIAL
NORMAL_FLOW_LIMITED  BOTH
FORCE_MAIN_EQUATION  H-W
VARIABLE_STEP        0.75
LENGTHENING_STEP     0
MIN_SURFAREA         12.557
MAX_TRIALS           8
HEAD_TOLERANCE       0.005
SYS_FLOW_TOL         5
LAT_FLOW_TOL         5
MINIMUM_STEP         0.5
THREADS              1

[EVAPORATION]
;;Data Source    Parameters
;;-------------- ----------------
CONSTANT         0.0
DRY_ONLY         NO

[RAINGAGES]
;;Name           Format    Interval SCF      Source    
;;-------------- --------- ------ ------ ----------
raingage1        INTENSITY 0:15     1.0      TIMESERIES rain_2017_08_12 

[SUBCATCHMENTS]
;;Name           Rain Gage        Outlet           Area     %Imperv  Width    %Slope   CurbLen  SnowPack        
;;-------------- ---------------- ---------------- -------- -------- -------- -------- -------- ----------------
661              raingage1        G141060          1.4232812 20       400      1        0                        
662              raingage1        G141058          0.93091289 20       400      1        0                        
663              raingage1        G141052          2.55168894 20       400      1        0                        
664              raingage1        G141051          2.85639443 20       400      1        0                        
665              raingage1        G141061          4.22528708 20       400      1        0                        
666              raingage1        G141054          1.32821213 20       400      1        0                        
667              raingage1        G141043          0.91036019 20       400      1        0                        
668              raingage1        G141039          1.03788986 20       400      1        0                        
669              raingage1        G141040          1.5339995 20       400      1        0                        
670              raingage1        G141033          1.64125533 20       400      1        0                        
671              raingage1        G141035          1.81008765 20       400      1        0                        
672              raingage1        G141036          0.15021419 20       400      1        0                        
673              raingage1        G141037          1.54076531 20       400      1        0                        
674              raingage1        G141038          2.93875449 20       400      1        0                        
676              raingage1        F146051          2.19493357 20       400      1        0                        
677              raingage1        G141014          2.26115691 20       400      1        0                        
678              raingage1        G141017          2.37455213 20       400      1        0                        
679              raingage1        G141024          0.52040423 20       400      1        0                        
682              raingage1        G141027.01       0.66831202 20       400      1        0                        
683              raingage1        G141030          1.75292845 20       400      1        0                        
684              raingage1        G141031          2.38769899 20       400      1        0                        
685              raingage1        G14901           0.77008453 20       400      1        0                        
686              raingage1        G14902           1.81095036 20       400      1        0                        
687              raingage1        G14994           2.39736017 20       400      1        0                        
688              raingage1        G14991           0.8124371 20       400      1        0                        
689              raingage1        G14992           0.73246354 20       400      1        0                        
690              raingage1        F14984           1.4196653 20       400      1        0                        
692              raingage1        F14970           1.19959883 20       400      1        0                        
693              raingage1        F14968           0.87771653 20       400      1        0                        
694              raingage1        G15853           0.16883502 20       400      1        0                        
695              raingage1        G15864           0.10810365 20       400      1        0                        
696              raingage1        G15862           0.11385976 20       400      1        0                        
697              raingage1        G14845           1.55145755 20       400      1        0                        
698              raingage1        G141001          0.79901957 20       400      1        0                        
699              raingage1        F14969.01        0.34348846 20       400      1        0                        
700              raingage1        F144073          1.64493555 20       400      1        0                        
701              raingage1        F144072          0.67539708 20       400      1        0                        
702              raingage1        F144074.01       0.39000101 20       400      1        0                        
703              raingage1        F14964           0.78387504 20       400      1        0                        
704              raingage1        F14962           1.77657193 20       400      1        0                        
705              raingage1        F14958           2.04183174 20       400      1        0                        
706              raingage1        F14953           0.29199149 20       400      1        0                        
707              raingage1        F14981           0.93551695 20       400      1        0                        
708              raingage1        F14949           1.08499927 20       400      1        0                        
709              raingage1        F14943           0.59900504 20       400      1        0                        
710              raingage1        F14942           0.42728512 20       400      1        0                        
711              raingage1        F14988           0.16766827 20       400      1        0                        
712              raingage1        G14989           0.1529941 20       400      1        0                        
713              raingage1        F14976           0.53892403 20       400      1        0                        
714              raingage1        F14937           0.49689443 20       400      1        0                        
715              raingage1        F14936           0.24791585 20       400      1        0                        
716              raingage1        F14933           1.06644865 20       400      1        0                        
717              raingage1        F14972           0.92969241 20       400      1        0                        
718              raingage1        F14987           0.57736927 20       400      1        0                        
719              raingage1        G14999           1.42403059 20       400      1        0                        
720              raingage1        G141000          0.26040124 20       400      1        0                        
721              raingage1        G15805           0.6683526 20       400      1        0                        
722              raingage1        G15801           1.8405833 20       400      1        0                        
724              raingage1        G15831           2.56397999 20       400      1        0                        
725              raingage1        G15839           2.77908754 20       400      1        0                        
726              raingage1        G15846           0.29878962 20       400      1        0                        
727              raingage1        G15834           1.11387837 20       400      1        0                        
728              raingage1        F144070          1.60088522 20       400      1        0                        
729              raingage1        F144064          0.56824961 20       400      1        0                        
730              raingage1        F144059          0.24764737 20       400      1        0                        
731              raingage1        F14955           0.43905064 20       400      1        0                        
732              raingage1        F14952           0.77070461 20       400      1        0                        
733              raingage1        F14948           1.09481158 20       400      1        0                        
734              raingage1        F144055.01       0.28343238 20       400      1        0                        
735              raingage1        F144053          0.0739714 20       400      1        0                        
736              raingage1        F14940           1.91972734 20       400      1        0                        
737              raingage1        F14947           0.72064199 20       400      1        0                        
738              raingage1        F154051.01       0.36635106 20       400      1        0                        
739              raingage1        F14945           0.34703915 20       400      1        0                        
740              raingage1        F14939           0.44958501 20       400      1        0                        
741              raingage1        F14930           0.90598227 20       400      1        0                        
742              raingage1        F14778           1.32304101 20       400      1        0                        
743              raingage1        F14779           0.91189028 20       400      1        0                        
744              raingage1        F15785           1.72110928 20       400      1        0                        
745              raingage1        G15803           0.74987848 20       400      1        0                        
746              raingage1        F15784           0.77986209 20       400      1        0                        
747              raingage1        G15800           0.07444387 20       400      1        0                        
748              raingage1        F15795           0.62163527 20       400      1        0                        
749              raingage1        G15799           0.91125799 20       400      1        0                        
750              raingage1        G15836           2.76742171 20       400      1        0                        
751              raingage1        F15724           1.78709846 20       400      1        0                        
752              raingage1        G15808           17.17060666 20       400      1        0                        
756              raingage1        G15564           0.06324255 20       400      1        0                        
768              raingage1        G15569           1.17331365 20       400      1        0                        
769              raingage1        G15563           0.37013172 20       400      1        0                        
770              raingage1        F144068          2.03639363 20       400      1        0                        
771              raingage1        F144067          0.93145195 20       400      1        0                        
772              raingage1        F144063          0.73953233 20       400      1        0                        
773              raingage1        F15759.01        1.84114909 20       400      1        0                        
774              raingage1        F144058.01       0.42811453 20       400      1        0                        
775              raingage1        F144057          0.11019558 20       400      1        0                        
776              raingage1        F144056          0.06888686 20       400      1        0                        
777              raingage1        F144054          0.07861676 20       400      1        0                        
778              raingage1        F15757.01        0.7267841 20       400      1        0                        
779              raingage1        F15754           0.88765018 20       400      1        0                        
780              raingage1        F15753           1.90612045 20       400      1        0                        
781              raingage1        F15756           2.33318377 20       400      1        0                        
782              raingage1        F154052          1.17931611 20       400      1        0                        
783              raingage1        F15771           1.07622829 20       400      1        0                        
784              raingage1        F15776           0.13813852 20       400      1        0                        
785              raingage1        F15772           0.76310262 20       400      1        0                        
786              raingage1        F15768           0.1727604 20       400      1        0                        
787              raingage1        F15766           0.45702827 20       400      1        0                        
788              raingage1        F15769           0.34713294 20       400      1        0                        
789              raingage1        F15752           0.51607627 20       400      1        0                        
790              raingage1        F15751           1.00770777 20       400      1        0                        
791              raingage1        F15749           0.19458822 20       400      1        0                        
792              raingage1        F15726           0.29256007 20       400      1        0                        
793              raingage1        F15725           0.07986652 20       400      1        0                        
794              raingage1        F15782           0.63623784 20       400      1        0                        
795              raingage1        F15773           0.89439468 20       400      1        0                        
796              raingage1        F15723           0.68291689 20       400      1        0                        
797              raingage1        F15720           0.5815596 20       400      1        0                        
798              raingage1        F15727           1.15031102 20       400      1        0                        
799              raingage1        F15722.01        0.05985467 20       400      1        0                        
800              raingage1        F15763           3.39354255 20       400      1        0                        
801              raingage1        F15601           19.30709553 20       400      1        0                        
802              raingage1        G15550           9.21258268 20       400      1        0                        
803              raingage1        F15549           6.03155392 20       400      1        0                        
804              raingage1        F15648           1.59291803 20       400      1        0                        
805              raingage1        F15659           1.91033891 20       400      1        0                        
806              raingage1        F15649           0.99697786 20       400      1        0                        
807              raingage1        F15652           0.1329188 20       400      1        0                        
808              raingage1        F15656           0.86882301 20       400      1        0                        
809              raingage1        F15657           1.22775578 20       400      1        0                        
810              raingage1        F15542.01        0.88796319 20       400      1        0                        
811              raingage1        F15617           0.77087066 20       400      1        0                        
812              raingage1        F15623           1.94460429 20       400      1        0                        
813              raingage1        F15543           1.13899872 20       400      1        0                        
814              raingage1        F15650           0.56273552 20       400      1        0                        
815              raingage1        F15619           0.08396129 20       400      1        0                        
816              raingage1        F15621           0.11445583 20       400      1        0                        
817              raingage1        F15620           0.22685954 20       400      1        0                        
818              raingage1        F15626           0.91648328 20       400      1        0                        
819              raingage1        F15535           1.03007666 20       400      1        0                        
820              raingage1        F15746           1.21238066 20       400      1        0                        
821              raingage1        F15742           0.30106852 20       400      1        0                        
822              raingage1        F15745.01        0.49084515 20       400      1        0                        
823              raingage1        F15737           0.67605262 20       400      1        0                        
824              raingage1        F15734           0.66456211 20       400      1        0                        
825              raingage1        F15715           1.46082155 20       400      1        0                        
826              raingage1        F15730           0.66308415 20       400      1        0                        
827              raingage1        F15729           0.39524736 20       400      1        0                        
828              raingage1        F15711           0.62057847 20       400      1        0                        
829              raingage1        F15706           1.59400786 20       400      1        0                        
830              raingage1        F15704           1.02121543 20       400      1        0                        
831              raingage1        F15664           1.22606034 20       400      1        0                        
832              raingage1        F15699           0.9265611 20       400      1        0                        
833              raingage1        F15666           0.1229317 20       400      1        0                        
834              raingage1        F15665           0.48820383 20       400      1        0                        
835              raingage1        F15646           2.03485284 20       400      1        0                        
836              raingage1        F15695           1.3795541 20       400      1        0                        
837              raingage1        F15674           1.15239848 20       400      1        0                        
838              raingage1        F15686           3.06527766 20       400      1        0                        
839              raingage1        F15689           2.76682165 20       400      1        0                        
840              raingage1        F15644           1.07862072 20       400      1        0                        
841              raingage1        F15645           0.88991649 20       400      1        0                        
842              raingage1        F15638           1.38963567 20       400      1        0                        
843              raingage1        F15634           2.12645932 20       400      1        0                        
844              raingage1        F158004          1.19480647 20       400      1        0                        
845              raingage1        F15673           0.68002552 20       400      1        0                        
846              raingage1        F15677           0.2858719 20       400      1        0                        
847              raingage1        F15676           0.19487166 20       400      1        0                        
848              raingage1        F15669           1.50599906 20       400      1        0                        
849              raingage1        F15679           0.07561069 20       400      1        0                        
850              raingage1        F15802           0.37222153 20       400      1        0                        
851              raingage1        F15681           0.44044542 20       400      1        0                        
852              raingage1        F15801           1.38988273 20       400      1        0                        
853              raingage1        F15636           1.08524762 20       400      1        0                        
854              raingage1        F15637           3.08280274 20       400      1        0                        
856              raingage1        F15804           23.6373481 20       400      1        0                        
857              raingage1        F15618           0.30254342 20       400      1        0                        
858              raingage1        F15654           0.67818838 20       400      1        0                        
859              raingage1        F15803           0.67317657 20       400      1        0                        
860              raingage1        F15682           0.74167168 20       400      1        0                        
861              raingage1        F15680           0.08762862 20       400      1        0                        
862              raingage1        F146051.01       4.15146694 20       400      1        0                        
863              raingage1        F14950           0.76028846 20       400      1        0                        
864              raingage1        F144061          0.15689836 20       400      1        0                        
865              raingage1        F15775           0.39673723 20       400      1        0                        
866              raingage1        F15721           2.00626113 20       400      1        0                        
867              raingage1        F15796           1.54083482 20       400      1        0                        
868              raingage1        F14980           2.28389558 20       400      1        0                        
869              raingage1        F14983           0.67328043 20       400      1        0                        
870              raingage1        F141004          1.37252555 20       400      1        0                        
871              raingage1        F14986           0.51437339 20       400      1        0                        
888              raingage1        G15861           0.67646578 20       400      1        0                        
1033             raingage1        G14904           1.38355109 20       400      1        0                        
1034             raingage1        G14903           2.70464475 20       400      1        0                        
1035             raingage1        G15865           9.23140267 20       400      1        0                        
1036             raingage1        G15852           4.09849531 20       400      1        0                        

[SUBAREAS]
;;Subcatchment   N-Imperv   N-Perv     S-Imperv   S-Perv     PctZero    RouteTo    PctRouted 
;;-------------- ---------- ---------- ---------- ---------- ---------- ---------- ----------
661              0.01       0.1        0.05       0.05       25         OUTLET    
662              0.01       0.1        0.05       0.05       25         OUTLET    
663              0.01       0.1        0.05       0.05       25         OUTLET    
664              0.01       0.1        0.05       0.05       25         OUTLET    
665              0.01       0.1        0.05       0.05       25         OUTLET    
666              0.01       0.1        0.05       0.05       25         OUTLET    
667              0.01       0.1        0.05       0.05       25         OUTLET    
668              0.01       0.1        0.05       0.05       25         OUTLET    
669              0.01       0.1        0.05       0.05       25         OUTLET    
670              0.01       0.1        0.05       0.05       25         OUTLET    
671              0.01       0.1        0.05       0.05       25         OUTLET    
672              0.01       0.1        0.05       0.05       25         OUTLET    
673              0.01       0.1        0.05       0.05       25         OUTLET    
674              0.01       0.1        0.05       0.05       25         OUTLET    
676              0.01       0.1        0.05       0.05       25         OUTLET    
677              0.01       0.1        0.05       0.05       25         OUTLET    
678              0.01       0.1        0.05       0.05       25         OUTLET    
679              0.01       0.1        0.05       0.05       25         OUTLET    
682              0.01       0.1        0.05       0.05       25         OUTLET    
683              0.01       0.1        0.05       0.05       25         OUTLET    
684              0.01       0.1        0.05       0.05       25         OUTLET    
685              0.01       0.1        0.05       0.05       25         OUTLET    
686              0.01       0.1        0.05       0.05       25         OUTLET    
687              0.01       0.1        0.05       0.05       25         OUTLET    
688              0.01       0.1        0.05       0.05       25         OUTLET    
689              0.01       0.1        0.05       0.05       25         OUTLET    
690              0.01       0.1        0.05       0.05       25         OUTLET    
692              0.01       0.1        0.05       0.05       25         OUTLET    
693              0.01       0.1        0.05       0.05       25         OUTLET    
694              0.01       0.1        0.05       0.05       25         OUTLET    
695              0.01       0.1        0.05       0.05       25         OUTLET    
696              0.01       0.1        0.05       0.05       25         OUTLET    
697              0.01       0.1        0.05       0.05       25         OUTLET    
698              0.01       0.1        0.05       0.05       25         OUTLET    
699              0.01       0.1        0.05       0.05       25         OUTLET    
700              0.01       0.1        0.05       0.05       25         OUTLET    
701              0.01       0.1        0.05       0.05       25         OUTLET    
702              0.01       0.1        0.05       0.05       25         OUTLET    
703              0.01       0.1        0.05       0.05       25         OUTLET    
704              0.01       0.1        0.05       0.05       25         OUTLET    
705              0.01       0.1        0.05       0.05       25         OUTLET    
706              0.01       0.1        0.05       0.05       25         OUTLET    
707              0.01       0.1        0.05       0.05       25         OUTLET    
708              0.01       0.1        0.05       0.05       25         OUTLET    
709              0.01       0.1        0.05       0.05       25         OUTLET    
710              0.01       0.1        0.05       0.05       25         OUTLET    
711              0.01       0.1        0.05       0.05       25         OUTLET    
712              0.01       0.1        0.05       0.05       25         OUTLET    
713              0.01       0.1        0.05       0.05       25         OUTLET    
714              0.01       0.1        0.05       0.05       25         OUTLET    
715              0.01       0.1        0.05       0.05       25         OUTLET    
716              0.01       0.1        0.05       0.05       25         OUTLET    
717              0.01       0.1        0.05       0.05       25         OUTLET    
718              0.01       0.1        0.05       0.05       25         OUTLET    
719              0.01       0.1        0.05       0.05       25         OUTLET    
720              0.01       0.1        0.05       0.05       25         OUTLET    
721              0.01       0.1        0.05       0.05       25         OUTLET    
722              0.01       0.1        0.05       0.05       25         OUTLET    
724              0.01       0.1        0.05       0.05       25         OUTLET    
725              0.01       0.1        0.05       0.05       25         OUTLET    
726              0.01       0.1        0.05       0.05       25         OUTLET    
727              0.01       0.1        0.05       0.05       25         OUTLET    
728              0.01       0.1        0.05       0.05       25         OUTLET    
729              0.01       0.1        0.05       0.05       25         OUTLET    
730              0.01       0.1        0.05       0.05       25         OUTLET    
731              0.01       0.1        0.05       0.05       25         OUTLET    
732              0.01       0.1        0.05       0.05       25         OUTLET    
733              0.01       0.1        0.05       0.05       25         OUTLET    
734              0.01       0.1        0.05       0.05       25         OUTLET    