[TITLE]
;;Project Title/Notes

[OPTIONS]
;;Option             Value
FLOW_UNITS           CFS
INFILTRATION         MODIFIED_GREEN_AMPT
FLOW_ROUTING         DYNWAVE
LINK_OFFSETS         DEPTH
MIN_SLOPE            0
ALLOW_PONDING        NO
SKIP_STEADY_STATE    NO

START_DATE           02/06/2018
START_TIME           00:00:00
REPORT_START_DATE    02/06/2018
REPORT_START_TIME    00:00:00
END_DATE             02/06/2018
END_TIME             14:00:00
SWEEP_START          01/01
SWEEP_END            12/31
DRY_DAYS             0
REPORT_STEP          00:15:00
WET_STEP             00:05:00
DRY_STEP             01:00:00
ROUTING_STEP         0:00:10 

INERTIAL_DAMPING     PARTIAL
NORMAL_FLOW_LIMITED  BOTH
FORCE_MAIN_EQUATION  H-W
VARIABLE_STEP        0.75
LENGTHENING_STEP     0
MIN_SURFAREA         12.557
MAX_TRIALS           8
HEAD_TOLERANCE       0.005
SYS_FLOW_TOL         5
LAT_FLOW_TOL         5
MINIMUM_STEP         0.5
THREADS              1

[EVAPORATION]
;;Data Source    Parameters
;;-------------- ----------------
CONSTANT         0.0
DRY_ONLY         NO

[RAINGAGES]
;;Name           Format    Interval SCF      Source    
;;-------------- --------- ------ ------ ----------
Gage1            INTENSITY 1:00     1.0      TIMESERIES rainfall        

[SUBCATCHMENTS]
;;Name           Rain Gage        Outlet           Area     %Imperv  Width    %Slope   CurbLen  SnowPack        
;;-------------- ---------------- ---------------- -------- -------- -------- -------- -------- ----------------
S1               Gage1            J1               70       50       400      0.5      0                        

[SUBAREAS]
;;Subcatchment   N-Imperv   N-Perv     S-Imperv   S-Perv     PctZero    RouteTo    PctRouted 
;;-------------- ---------- ---------- ---------- ---------- ---------- ---------- ----------
S1               0.01       0.1        0.05       0.05       25         OUTLET    

[INFILTRATION]
;;Subcatchment   Suction    Ksat       IMD       
;;-------------- ---------- ---------- ----------
S1               3.5        0.5        0.26      

[JUNCTIONS]
;;           InvertElev MaxDepth SurchargedDepth PondedArea
F15532       -0.28      5.57     0               0       
F15540       -4.96      6.0      0               0       
F15533       0.11       4.49     0               0       
F15541       -4.95      6.11     0               0       
F15617       -4.76      6.0      0               0       
F15535       2.24       4.42     0               0       
F15542       -4.67      4.0      0               0       
F15618       -0.38      6.01     0               0       
F15622       -4.63      3.6      0               0       
F15617.01    -0.08      4.46     0               0       
F15543       1.97       5.06     0               0       
F15546       -4.37      5.14     0               0       
F15542.01    0.06       3.86     0               0       
F15619       0.19       5.25     0               0       
F15620       0.19       4.94     0               0       
F15623       -1.82      3.81     0               0       
F15624       -4.54      4.0      0               0       
F15547       -3.92      4.94     0               0       
F15621       0.63       4.46     0               0       
F15625       -1.23      3.75     0               0       
F15632       -4.43      5.43     0               0       
F15548       -3.31      5.0      0               0       
F15601       -2.94      5.24     0               0       
F15626       -0.83      3.38     0               0       
F15633       -4.33      4.5      0               0       
F15549       -3.22      5.0      0               0       
F15634       -1.3       2.72     0               0       
F15638       -4.02      5.0      0               0       
G15550       -2.67      2.25     0               0       
F15636       0.58       4.42     0               0       
F15639       -3.97      5.5      0               0       
G15559       -2.31      4.67     0               0       
F15637       0.42       4.34     0               0       
F15641       -3.92      6.0      0               0       
G15563       -1.69      4.51     0               0       
G15560       2.42       5.07     0               0       
F15643       -3.35      3.2      0               0       
F15667       -3.85      6.3      0               0       
G15565       -1.29      5.23     0               0       
G15564       2.22       3.88     0               0       
F15647       -3.17      3.34     0               0       
F15644       -1.68      3.08     0               0       
F15668       0.03       4.73     0               0       
F15672       -3.59      4.2      0               0       
G15566       -1.2       4.86     0               0       
F15651       -2.29      3.9      0               0       
F15648       -0.76      2.77     0               0       
F15645       -1.3       3.04     0               0       
F15669       0.48       3.17     0               0       
F15673       -3.88      2.08     0               0       
F15683       -3.47      4.11     0               0       
G15567       1.88       5.21     0               0       
G15569       2.22       4.17     0               0       
F15653       -2.23      3.9      0               0       
F15652       -1.6       3.51     0               0       
F15649       -0.28      3.46     0               0       
F15650       0.17       3.22     0               0       
F15646       -1.1       3.24     0               0       
F15671       1.19       5.31     0               0       
F15675       -2.95      3.5      0               0       
F15674       -0.27      3.52     0               0       
F15684       -3.43      3.5      0               0       
F15654       -1.75      3.94     0               0       
F15655       -2.09      3.93     0               0       
F15676       -2.05      3.66     0               0       
F15678       -2.77      3.53     0               0       
F15677       -3.06      3.27     0               0       
F15686       -3.41      2.86     0               0       
F15656       -2.25      3.78     0               0       
F158004      -2.23      2.18     0               0       
F15681       0.1        3.68     0               0       
F15679       -2.28      3.58     0               0       
F15687.01    -3.35      5.0      0               0       
F15658       -1.89      5.04     0               0       
F15657       0.57       5.87     0               0       
F15682       0.32       3.6      0               0       
F15800       -2.65      3.81     0               0       
F15680       -1.78      3.55     0               0       
F15687.02    -2.5       5.0      0               0       
F15687       -3.32      5.0      0               0       
F15659       2.46       5.04     0               0       
F15661       -1.32      7.08     0               0       
F15664       0.84       5.71     0               0       
F15801       0.75       2.33     0               0       
F15802       -2.65      3.76     0               0       
F15688       -3.3       5.92     0               0       
F15660       2.71       5.0      0               0       
F15665       0.6        4.99     0               0       
F15804       -1.74      3.66     0               0       
F15803       -1.05      3.42     0               0       
F15689       1.06       3.26     0               0       
F15692       0.0        0.0      0               0       
F15666       0.77       4.92     0               0       
F15693       -0.96      4.45     0               0       
F15697       -3.22      4.3      0               0       
F15694       0.7        2.98     0               0       
F15698       0.98       3.79     0               0       
F15702       -3.21      4.11     0               0       
F15695       0.79       2.98     0               0       
F15699       1.79       3.79     0               0       
F15703       -3.18      5.15     0               0       
F15710       2.5        4.5      0               0       
F15705       -3.17      5.0      0               0       
F15704       2.74       4.44     0               0       
F15706       0.25       3.62     0               0       
F15711       -3.14      5.41     0               0       
F15712       -3.13      4.5      0               0       
F15714       -3.12      3.95     0               0       
F15715       -0.22      3.63     0               0       
F15716       -3.1       6.28     0               0       
F15728       -3.3       5.3      0               0       
F15726       -0.2       3.83     0               0       
F15718       -3.04      3.96     0               0       
F15729       0.85       3.94     0               0       
F15731       -3.3       4.88     0               0       
F15727       0.99       4.35     0               0       
F15720       0.2        3.22     0               0       
F15730       0.69       4.14     0               0       
F15732       -3.3       5.15     0               0       
F15721       0.77       3.98     0               0       
F15733       0.89       7.2      0               0       
F15748       1.83       6.19     0               0       
F15722       5.54       10.14    0               0       
F15735       1.01       7.12     0               0       
F15734       2.33       5.58     0               0       
F15750       0.2        5.68     0               0       
F15760       -3.3       5.55     0               0       
F15749       1.83       6.19     0               0       
F15722.01    5.37       10.08    0               0       
F15723       5.99       10.02    0               0       
F15736       1.27       5.38     0               0       
F15751       0.74       6.44     0               0       
F15762       -3.3       2.01     0               0       
F15724       6.04       10.09    0               0       
F15737       2.87       5.3      0               0       
F15739       2.52       9.37     0               0       
F15752       1.02       4.43     0               0       
F15764       -3.3       2.23     0               0       
F15763       -2.32      2.01     0               0       
F15725       6.78       10.0     0               0       
F15741       3.02       8.75     0               0       
F15753       2.24       5.07     0               0       
F15765       -3.81      3.02     0               0       
F15742       3.25       8.103    0               0       
F15744       3.9        9.9      0               0       
F15754       3.51       8.11     0               0       
F15767       -2.75      3.87     0               0       
F15766       -0.65      3.14     0               0       
F15568       3.37       8.42     0               0       
F15744.01    4.84       10.23    0               0       
F15755       4.04       8.61     0               0       
F15769       -2.69      3.87     0               0       
F15768       -1.37      3.87     0               0       
F15745       5.65       10.25    0               0       
F15756       5.08       7.61     0               0       
F15772       0.73       4.45     0               0       
F15770       1.0        3.87     0               0       
F15771       -0.79      5.11     0               0       
F15776       -2.53      3.6      0               0       
F15746       6.08       10.11    0               0       
F15745.01    6.12       10.24    0               0       
F15757       5.54       10.49    0               0       
F15774       1.48       3.39     0               0       
F15773       1.89       5.0      0               0       
F154050      -1.86      4.99     0               0       
F14777       -2.31      4.75     0               0       
F15757.01    5.82       9.11     0               0       
F15775       1.5        2.9      0               0       
F154051      -1.48      5.4      0               0       
F14778       0.78       3.97     0               0       
F14779       0.74       3.97     0               0       
F14780       -2.03      4.9      0               0       
F15758       6.15       10.06    0               0       
F144053      -0.79      11.69    0               0       
F154051.01   -1.48      5.63     0               0       
F14781       -2.03      4.3      0               0       
F15759.01    6.76       9.51     0               0       
F144054      7.59       11.46    0               0       
F144055      -0.35      11.52    0               0       
F15782       -0.83      6.05     0               0       
F14930       -1.8       3.15     0               0       
F15759       6.74       9.88     0               0       
F144059      0.19       13.3     0               0       
F144055.01   0.67       11.75    0               0       
F144056      3.95       11.66    0               0       
F15784       0.19       6.34     0               0       
F15783       1.12       6.17     0               0       
F14931       -1.17      3.6      0               0       
F14932       -1.64      3.4      0               0       
F144060      0.34       12.5     0               0       
F144057      4.39       11.5     0               0       
F15789       0.19       6.34     0               0       
F15785       2.5        5.02     0               0       
F14972       -1.29      4.48     0               0       
F14933       -1.16      3.52     0               0       
F14934       -1.32      4.55     0               0       
F144061      0.39       12.33    0               0       
F144058      4.52       10.24    0               0       
F15791       0.22       7.77     0               0       
F14973       -1.57      5.7      0               0       
F14935       -0.71      3.56     0               0       
F144062      0.61       11.98    0               0       
F144058.01   4.9        10.54    0               0       
F15794       0.26       5.07     0               0       
F14975       -0.91      6.07     0               0       
F14936       0.47       3.6      0               0       
F14938       -0.66      3.53     0               0       
F14937       2.88       3.743    0               0       
F144063      5.07       9.99     0               0       
F144064      0.38       10.08    0               0       
F15795       0.69       5.32     0               0       
G15797       0.37       6.51     0               0       
F15796       1.43       5.55     0               0       
F14977       -0.71      6.85     0               0       
F14976       0.83       6.05     0               0       
F14939       0.81       3.64     0               0       
F14940       0.32       3.53     0               0       
F14941       -0.29      3.53     0               0       
F144065      1.12       10.27    0               0       
G15798       0.88       6.8      0               0       
G15806       0.53       7.41     0               0       
F141003      -0.81      5.38     0               0       
F14978       2.21       8.41     0               0       
F14982       0.47       6.95     0               0       
F14943       -0.25      3.46     0               0       
F14942       0.12       3.77     0               0       
F14944       0.26       3.67     0               0       
F144066      1.22       10.53    0               0       
G15801       2.35       7.53     0               0       
G15799       2.22       6.77     0               0       
G15800       2.2        6.83     0               0       
G15807       0.99       7.86     0               0       
G151115      0.55       7.41     0               0       
F141004      2.25       6.0      0               0       
F141006      -0.05      8.63     0               0       
F14979.01    2.44       8.42     0               0       
F14988       0.9        5.35     0               0       
F14983       2.11       5.3      0               0       
F14986       1.64       5.15     0               0       
F14945       1.52       5.08     0               0       
F14946       0.61       4.06     0               0       
F144070      2.9        10.18    0               0       
F144068      6.95       11.1     0               0       
F144067      6.96       11.28    0               0       
G15802       2.08       7.61     0               0       
G15808       1.26       7.24     0               0       
G15828       0.63       6.76     0               0       
F141008      -0.19      5.33     0               0       
F14979       2.44       8.42     0               0       
F146050      2.65       8.36     0               0       
G14989       3.7        5.07     0               0       
F14984       2.29       5.42     0               0       
F14987       2.67       5.36     0               0       
F14947       1.6        4.33     0               0       
F14948       1.52       7.04     0               0       
F144071      2.52       9.66     0               0       
G15805       4.57       7.57     0               0       
G15803       1.41       7.28     0               0       
G15812       1.47       7.27     0               0       
G15831       3.77       7.05     0               0       
G15832       0.95       6.73     0               0       
G141013      -0.42      5.99     0               0       
F14980       4.07       8.16     0               0       
F14981       3.68       8.08     0               0       
F146051      3.56       7.05     0               0       
G14999       1.43       5.22     0               0       
G14990       1.84       4.7      0               0       
F14950       2.05       4.94     0               0       
F14949       2.39       5.19     0               0       
F14951       2.46       8.22     0               0       
F144073      5.88       9.66     0               0       
F144072      3.99       10.02    0               0       
F144074      5.86       9.18     0               0       
G15813       1.76       7.66     0               0       
G15839       2.44       6.35     0               0       
G15833       1.68       6.38     0               0       
G141015      -3.7       7.19     0               0       
G141014      1.16       5.99     0               0       
F146053      5.49       8.25     0               0       
F146051.01   3.64       7.08     0               0       
G141001      3.32       6.85     0               0       
G141000      2.51       5.58     0               0       
G14991       2.01       5.19     0               0       
F14952       3.25       6.15     0               0       
F14953       2.69       7.3      0               0       
F144074.01   5.73       9.56     0               0       
G15841       2.14       6.16     0               0       
G15834       1.89       6.4      0               0       
G141016      -0.34      5.71     0               0       
G14994       3.68       6.99     0               0       
G14992       2.32       4.84     0               0       
F14956       3.27       7.4      0               0       
F14955       4.23       8.08     0               0       
F14954       3.94       7.04     0               0       
G15842       3.83       8.31     0               0       
G15846       2.17       7.51     0               0       
G15835       2.14       6.47     0               0       
G141018      0.83       6.47     0               0       
G141017      1.5        5.8      0               0       
F14957       3.5        7.8      0               0       
G15843       4.03       8.21     0               0       
G15847       -2.5       4.26     0               0       
G15836       2.45       6.56     0               0       
G141021      1.43       7.34     0               0       
G141020      2.82       6.08     0               0       
F14958       3.64       7.83     0               0       
G14844       5.19       9.74     0               0       
G141024      2.35       10.88    0               0       
F14965       4.15       7.5      0               0       
F14960       4.41       9.36     0               0       
G14845       5.21       9.75     0               0       
G141023      1.43       10.38    0               0       
F14966       5.92       9.6      0               0       
F14962       4.57       9.16     0               0       
G141033      4.28       9.95     0               0       
G141027      5.25       10.25    0               0       
F14967       6.95       10.65    0               0       
F14964       3.8        9.157    0               0       
G141035      5.23       10.77    0               0       
G141029      5.16       10.79    0               0       
G141027.01   7.73       10.74    0               0       
F14969       7.64       11.29    0               0       
F14968       8.05       10.8     0               0       
G141036      5.42       10.89    0               0       
G141030      5.57       9.09     0               0       
F14970       8.16       10.86    0               0       
F14969.01    3.51       11.572   0               0       
G141037      5.71       10.38    0               0       
G141031      6.79       9.62     0               0       
G141039      6.26       9.62     0               0       
G141038      5.98       10.48    0               0       
G141041      6.24       9.1      0               0       
G141040      6.21       9.63     0               0       
G141042      6.48       9.44     0               0       
G141050      5.79       9.7      0               0       
G141043      6.58       9.58     0               0       
G141053      6.5        9.64     0               0       
G141051      6.05       9.83     0               0       
G141059      7.28       9.75     0               0       
G141058      7.72       10.47    0               0       
G141054      7.1        10.39    0               0       
G141052      6.06       9.69     0               0       
G141061      7.58       12.38    0               0       
G141060      7.86       12.08    0               0       



[OUTFALLS]
;;       InvertElev OutfallType StageOrTimeseries TideGate
F15531   -5.0       FREE                          NO    



[STORAGE]
;;Name           Elev.    MaxDepth   InitDepth  Shape      Curve Name/Params            N/A      Fevap    Psi      Ksat     IMD     
;;-------------- -------- ---------- ----------- ---------- ---------------------------- -------- --------          -------- --------
St1              90       5          0.75       FUNCTIONAL 0         0         40000    0        0       

[CONDUITS]
;;     InletNode    OutletNode  Length        ManningN InletOffset OutletOffset InitFlow MaxFlow
889    F15742       F15741      39.0          0.015    0           0            0        0    
890    F15568       F15742      19.0          0.015    0           0            0        0    
891    F15746       F15745      45.0          0.015    0           0            0        0    
892    F15745.01    F15745      59.0          0.015    0           0            0        0    
893    F15733       F15732      261.0         0.015    0           0            0        0    
894    F15735       F15733      15.0          0.015    0           0            0        0    
895    F15736       F15735      30.0          0.015    0           0            0        0    
896    F15737       F15736      52.0          0.015    0           0            0        0    
897    F15729       F15728      66.0          0.015    0           0            0        0    
898    F15728       F15716      65.0          0.015    0           0            0        0    
899    F15731       F15728      20.0          0.015    0           0            0        0    
900    F15732       F15731      18.0          0.015    0           0            0        0    
901    F15754       F15753      140.0         0.015    0           0            0        0    
902    F15755       F15754      85.0          0.015    0           0            0        0    
903    F15756       F15755      90.0          0.015    0           0            0        0    
904    F15757       F15756      86.0          0.015    0           0            0        0    
905    F15757.01    F15757      53.0          0.015    0           0            0        0    
906    F15759.01    F15758      54.0          0.015    0           0            0        0    
907    F15759       F15759.01   13.0          0.015    0           0            0        0    
908    F15758       F15757.01   97.0          0.015    0           0            0        0    
909    F15750       F15748      36.0          0.015    0           0            0        0    
910    F15751       F15750      22.0          0.015    0           0            0        0    
911    F15752       F15751      166.0         0.015    0           0            0        0    
912    F15753       F15752      92.0          0.015    0           0            0        0    
913    F15748       F15732      19.0          0.015    0           0            0        0    
914    F15760       F15748      11.0          0.015    0           0            0        0    
915    F15762       F15760      356.0         0.015    0           0            0        0    
916    F15687.02    F15687.01   66.0          0.015    0           0            0        0    
917    F15693       F15692      24.0          0.015    0           0            0        0    
918    F15694       F15693      239.0         0.015    0           0            0        0    
919    F15695       F15694      30.0          0.015    0           0            0        0    
920    F15804       F15802      212.0         0.015    0           0            0        0    
921    F15801       F15800      32.0          0.015    0           0            0        0    
922    F158004      F15678      108.0         0.015    0           0            0        0    
923    F15676       F15675      12.0          0.015    0           0            0        0    
924    F15668       F15667      116.0         0.015    0           0            0        0    
925    F15669       F15668      82.0          0.015    0           0            0        0    
926    F15671       F15669      141.0         0.015    0           0            0        0    
927    F15532       F15531      305.0         0.015    0           0            0        0    
928    F15533       F15532      144.0         0.015    0           0            0        0    
929    F15535       F15533      140.0         0.015    0           0            0        0    
930    F15687.01    F15686      197.0         0.015    0           0            0        0    
931    F15687       F15687.01   113.0         0.015    0           0            0        0    
932    F15689       F15688      172.0         0.015    0           0            0        0    
933    F15706       F15705      40.0          0.015    0           0            0        0    
934    F15710       F15703      210.0         0.015    0           0            0        0    
935    F15699       F15698      39.0          0.015    0           0            0        0    
936    F15698       F15697      39.0          0.015    0           0            0        0    
937    F15734       F15733      80.0          0.015    0           0            0        0    
938    F144073      F144071     30.0          0.015    0           0            0        0    
939    F14947       F14946      44.0          0.015    0           0            0        0    
940    F14950       F14948      20.0          0.015    0           0            0        0    
941    F14952       F14951      28.0          0.015    0           0            0        0    
942    F15741       F15739      102.0         0.015    0           0            0        0    
943    F15744.01    F15744      22.0          0.015    0           0            0        0    
944    F15744       F15741      179.0         0.015    0           0            0        0    
945    F15625       F15624      82.0          0.015    0           0            0        0    
946    F15626       F15625      4.0           0.015    0           0            0        0    
947    F15632       F15624      102.0         0.015    0           0            0        0    
948    F15634       F15633      116.0         0.015    0           0            0        0    
949    F15636       F15634      147.0         0.015    0           0            0        0    
950    F15637       F15636      30.0          0.015    0           0            0        0    
1001   F14949       F14948      36.0          0.015    0           0            0        0    
1002   F15681       F15678      34.0          0.015    0           0            0        0    
1003   F15682       F15681      30.0          0.015    0           0            0        0    
1004   F15678       F15675      20.0          0.015    0           0            0        0    
1005   F15675       F15673      108.0         0.015    0           0            0        0    
1006   F15677       F15675      27.0          0.015    0           0            0        0    
1007   F15673       F15672      240.0         0.015    0           0            0        0    
1008   F15674       F15673      37.0          0.015    0           0            0        0    
1009   F15683       F15672      58.0          0.015    0           0            0        0    
1010   F15647       F15643      58.0          0.015    0           0            0        0    
1011   F15644       F15643      32.0          0.015    0           0            0        0    
1012   F15643       F15641      184.0         0.015    0           0            0        0    
1013   F15641       F15639      20.0          0.015    0           0            0        0    
1014   F15646       F15645      73.0          0.015    0           0            0        0    